CargasBT.dss
New "Load.BT_3405846_M1" bus1="UC3405846.1.2.4" phases=1 conn=Delta model=2 kv=0.440000000 kw = 0.8130605 pf=0.92 status=variable vmaxpu=1.5 vminpu=0.5 daily="RU"  
New "Load.BT_3405846_M2" bus1="UC3405846.1.2.4" phases=1 conn=Delta model=3 kv=0.440000000 kw = 0.8130605 pf=0.92 status=variable vmaxpu=1.5 vminpu=0.5 daily="RU" 
New "Load.BT_1607357_M1" bus1="UC1607357.1.2.4" phases=1 conn=Delta model=2 kv=0.440000000 kw = 0.741306 pf=0.92 status=variable vmaxpu=1.5 vminpu=0.5 daily="RU"  
New "Load.BT_1607357_M2" bus1="UC1607357.1.2.4" phases=1 conn=Delta model=3 kv=0.440000000 kw = 0.741306 pf=0.92 status=variable vmaxpu=1.5 vminpu=0.5 daily="RU" 
New "Load.BT_606114_M1" bus1="UC606114.1.4" phases=1 conn=Wye model=2 kv=0.220000000 kw = 0.7641985 pf=0.92 status=variable vmaxpu=1.5 vminpu=0.5 daily="RU"  
New "Load.BT_606114_M2" bus1="UC606114.1.4" phases=1 conn=Wye model=3 kv=0.220000000 kw = 0.7641985 pf=0.92 status=variable vmaxpu=1.5 vminpu=0.5 daily="RU" 
New "Load.BT_606109_M1" bus1="UC606109.1.2.3.4" phases=3 conn=Delta model=2 kv=0.380000000 kw = 0.966918 pf=0.92 status=variable vmaxpu=1.5 vminpu=0.5 daily="RU"  
New "Load.BT_606109_M2" bus1="UC606109.1.2.3.4" phases=3 conn=Delta model=3 kv=0.380000000 kw = 0.966918 pf=0.92 status=variable vmaxpu=1.5 vminpu=0.5 daily="RU" 
New "Load.BT_606132_M1" bus1="UC606132.1.2.3.4" phases=3 conn=Delta model=2 kv=0.380000000 kw = 1.2506695 pf=0.92 status=variable vmaxpu=1.5 vminpu=0.5 daily="RU"  
New "Load.BT_606132_M2" bus1="UC606132.1.2.3.4" phases=3 conn=Delta model=3 kv=0.380000000 kw = 1.2506695 pf=0.92 status=variable vmaxpu=1.5 vminpu=0.5 daily="RU" 
New "Load.BT_1626672_M1" bus1="UC1626672.1.4" phases=1 conn=Wye model=2 kv=0.220000000 kw = 0.264098 pf=0.92 status=variable vmaxpu=1.5 vminpu=0.5 daily="RU"  
New "Load.BT_1626672_M2" bus1="UC1626672.1.4" phases=1 conn=Wye model=3 kv=0.220000000 kw = 0.264098 pf=0.92 status=variable vmaxpu=1.5 vminpu=0.5 daily="RU" 
New "Load.BT_605828_M1" bus1="UC605828.1.4" phases=1 conn=Wye model=2 kv=0.220000000 kw = 0.336876 pf=0.92 status=variable vmaxpu=1.5 vminpu=0.5 daily="RU"  
New "Load.BT_605828_M2" bus1="UC605828.1.4" phases=1 conn=Wye model=3 kv=0.220000000 kw = 0.336876 pf=0.92 status=variable vmaxpu=1.5 vminpu=0.5 daily="RU" 
New "Load.BT_1607272_M1" bus1="UC1607272.1.4" phases=1 conn=Wye model=2 kv=0.219393102 kw = 0.6967695 pf=0.92 status=variable vmaxpu=1.5 vminpu=0.5 daily="RU"  
New "Load.BT_1607272_M2" bus1="UC1607272.1.4" phases=1 conn=Wye model=3 kv=0.219393102 kw = 0.6967695 pf=0.92 status=variable vmaxpu=1.5 vminpu=0.5 daily="RU" 
New "Load.BT_635966_M1" bus1="UC635966.1.2.3.4" phases=3 conn=Delta model=2 kv=0.380000000 kw = 0.767338 pf=0.92 status=variable vmaxpu=1.5 vminpu=0.5 daily="RU"  
New "Load.BT_635966_M2" bus1="UC635966.1.2.3.4" phases=3 conn=Delta model=3 kv=0.380000000 kw = 0.767338 pf=0.92 status=variable vmaxpu=1.5 vminpu=0.5 daily="RU" 
New "Load.BT_629428_M1" bus1="UC629428.1.4" phases=1 conn=Wye model=2 kv=0.220000000 kw = 0.0511635 pf=0.92 status=variable vmaxpu=1.5 vminpu=0.5 daily="RU"  
New "Load.BT_629428_M2" bus1="UC629428.1.4" phases=1 conn=Wye model=3 kv=0.220000000 kw = 0.0511635 pf=0.92 status=variable vmaxpu=1.5 vminpu=0.5 daily="RU" 
New "Load.BT_1607288_M1" bus1="UC1607288.1.2.4" phases=1 conn=Delta model=2 kv=0.380000000 kw = 0.256606 pf=0.92 status=variable vmaxpu=1.5 vminpu=0.5 daily="RU"  
New "Load.BT_1607288_M2" bus1="UC1607288.1.2.4" phases=1 conn=Delta model=3 kv=0.380000000 kw = 0.256606 pf=0.92 status=variable vmaxpu=1.5 vminpu=0.5 daily="RU" 
New "Load.BT_1132012_M1" bus1="UC1132012.1.4" phases=1 conn=Wye model=2 kv=0.220000000 kw = 0.234079 pf=0.92 status=variable vmaxpu=1.5 vminpu=0.5 daily="RU"  
New "Load.BT_1132012_M2" bus1="UC1132012.1.4" phases=1 conn=Wye model=3 kv=0.220000000 kw = 0.234079 pf=0.92 status=variable vmaxpu=1.5 vminpu=0.5 daily="RU" 
New "Load.BT_606127_M1" bus1="UC606127.1.2.3.4" phases=3 conn=Delta model=2 kv=0.380000000 kw = 0.771691 pf=0.92 status=variable vmaxpu=1.5 vminpu=0.5 daily="RU"  
New "Load.BT_606127_M2" bus1="UC606127.1.2.3.4" phases=3 conn=Delta model=3 kv=0.380000000 kw = 0.771691 pf=0.92 status=variable vmaxpu=1.5 vminpu=0.5 daily="RU" 
New "Load.BT_1606000_M1" bus1="UC1606000.2.4" phases=1 conn=Wye model=2 kv=0.219393102 kw = 0.2693635 pf=0.92 status=variable vmaxpu=1.5 vminpu=0.5 daily="RU"  
New "Load.BT_1606000_M2" bus1="UC1606000.2.4" phases=1 conn=Wye model=3 kv=0.219393102 kw = 0.2693635 pf=0.92 status=variable vmaxpu=1.5 vminpu=0.5 daily="RU" 

New "Load.BT_632607_M1" bus1="UC632607.1.2.3.4" phases=3 conn=Delta model=2 kv=0.380000000 kw = 12.4556925 pf=0.92 status=variable vmaxpu=1.5 vminpu=0.5 daily="RU"  
New "Load.BT_632607_M2" bus1="UC632607.1.2.3.4" phases=3 conn=Delta model=3 kv=0.380000000 kw = 12.4556925 pf=0.92 status=variable vmaxpu=1.5 vminpu=0.5 daily="RU" 
New "Load.BT_1139390_M1" bus1="UC1139390.1.2.3.4" phases=3 conn=Delta model=2 kv=0.380000000 kw = 0.0 pf=0.92 status=variable vmaxpu=1.5 vminpu=0.5 daily="RU"  
New "Load.BT_1139390_M2" bus1="UC1139390.1.2.3.4" phases=3 conn=Delta model=3 kv=0.380000000 kw = 0.0 pf=0.92 status=variable vmaxpu=1.5 vminpu=0.5 daily="RU" 
New "Load.BT_1607287_M1" bus1="UC1607287.1.4" phases=1 conn=Wye model=2 kv=0.220000000 kw = 0.6266885 pf=0.92 status=variable vmaxpu=1.5 vminpu=0.5 daily="RU"  
New "Load.BT_1607287_M2" bus1="UC1607287.1.4" phases=1 conn=Wye model=3 kv=0.220000000 kw = 0.6266885 pf=0.92 status=variable vmaxpu=1.5 vminpu=0.5 daily="RU" 
New "Load.BT_607367_M1" bus1="UC607367.1.4" phases=1 conn=Wye model=2 kv=0.220000000 kw = 0.0 pf=0.92 status=variable vmaxpu=1.5 vminpu=0.5 daily="RU"  
New "Load.BT_607367_M2" bus1="UC607367.1.4" phases=1 conn=Wye model=3 kv=0.220000000 kw = 0.0 pf=0.92 status=variable vmaxpu=1.5 vminpu=0.5 daily="RU" 
New "Load.BT_607382_M1" bus1="UC607382.2.4" phases=1 conn=Wye model=2 kv=0.220000000 kw = 0.1817925 pf=0.92 status=variable vmaxpu=1.5 vminpu=0.5 daily="RU"  
New "Load.BT_607382_M2" bus1="UC607382.2.4" phases=1 conn=Wye model=3 kv=0.220000000 kw = 0.1817925 pf=0.92 status=variable vmaxpu=1.5 vminpu=0.5 daily="RU" 
New "Load.BT_3433894_M1" bus1="UC3433894.1.4" phases=1 conn=Wye model=2 kv=0.220000000 kw = 0.439673 pf=0.92 status=variable vmaxpu=1.5 vminpu=0.5 daily="RU"  
New "Load.BT_3433894_M2" bus1="UC3433894.1.4" phases=1 conn=Wye model=3 kv=0.220000000 kw = 0.439673 pf=0.92 status=variable vmaxpu=1.5 vminpu=0.5 daily="RU" 
New "Load.BT_1607285_M1" bus1="UC1607285.1.2.3.4" phases=3 conn=Delta model=2 kv=0.380000000 kw = 1.000648 pf=0.92 status=variable vmaxpu=1.5 vminpu=0.5 daily="RU"  
New "Load.BT_1607285_M2" bus1="UC1607285.1.2.3.4" phases=3 conn=Delta model=3 kv=0.380000000 kw = 1.000648 pf=0.92 status=variable vmaxpu=1.5 vminpu=0.5 daily="RU" 
New "Load.BT_605914_M1" bus1="UC605914.1.4" phases=1 conn=Wye model=2 kv=0.220000000 kw = 0.0 pf=0.92 status=variable vmaxpu=1.5 vminpu=0.5 daily="CO"  
New "Load.BT_605914_M2" bus1="UC605914.1.4" phases=1 conn=Wye model=3 kv=0.220000000 kw = 0.0 pf=0.92 status=variable vmaxpu=1.5 vminpu=0.5 daily="CO" 
New "Load.BT_639553_M1" bus1="UC639553.1.4" phases=1 conn=Wye model=2 kv=0.219393102 kw = 0.0 pf=0.92 status=variable vmaxpu=1.5 vminpu=0.5 daily="RU"  
New "Load.BT_639553_M2" bus1="UC639553.1.4" phases=1 conn=Wye model=3 kv=0.219393102 kw = 0.0 pf=0.92 status=variable vmaxpu=1.5 vminpu=0.5 daily="RU" 
New "Load.BT_631391_M1" bus1="UC631391.2.4" phases=1 conn=Wye model=2 kv=0.220000000 kw = 0.5709055 pf=0.92 status=variable vmaxpu=1.5 vminpu=0.5 daily="RE"  
New "Load.BT_631391_M2" bus1="UC631391.2.4" phases=1 conn=Wye model=3 kv=0.220000000 kw = 0.5709055 pf=0.92 status=variable vmaxpu=1.5 vminpu=0.5 daily="RE" 
New "Load.BT_1607299_M1" bus1="UC1607299.2.4" phases=1 conn=Wye model=2 kv=0.219393102 kw = 0.041746 pf=0.92 status=variable vmaxpu=1.5 vminpu=0.5 daily="RU"  
New "Load.BT_1607299_M2" bus1="UC1607299.2.4" phases=1 conn=Wye model=3 kv=0.219393102 kw = 0.041746 pf=0.92 status=variable vmaxpu=1.5 vminpu=0.5 daily="RU" 
New "Load.BT_623432_M1" bus1="UC623432.1.4" phases=1 conn=Wye model=2 kv=0.220000000 kw = 0.170915 pf=0.92 status=variable vmaxpu=1.5 vminpu=0.5 daily="RU"  
New "Load.BT_623432_M2" bus1="UC623432.1.4" phases=1 conn=Wye model=3 kv=0.220000000 kw = 0.170915 pf=0.92 status=variable vmaxpu=1.5 vminpu=0.5 daily="RU" 
New "Load.BT_1607283_M1" bus1="UC1607283.1.4" phases=1 conn=Wye model=2 kv=0.219393102 kw = 0.6536895 pf=0.92 status=variable vmaxpu=1.5 vminpu=0.5 daily="RU"  
New "Load.BT_1607283_M2" bus1="UC1607283.1.4" phases=1 conn=Wye model=3 kv=0.219393102 kw = 0.6536895 pf=0.92 status=variable vmaxpu=1.5 vminpu=0.5 daily="RU" 
New "Load.BT_605921_M1" bus1="UC605921.1.2.4" phases=1 conn=Delta model=2 kv=0.440000000 kw = 0.615542 pf=0.92 status=variable vmaxpu=1.5 vminpu=0.5 daily="RU"  
New "Load.BT_605921_M2" bus1="UC605921.1.2.4" phases=1 conn=Delta model=3 kv=0.440000000 kw = 0.615542 pf=0.92 status=variable vmaxpu=1.5 vminpu=0.5 daily="RU" 
New "Load.BT_1607291_M1" bus1="UC1607291.1.2.4" phases=1 conn=Delta model=2 kv=0.440000000 kw = 0.0009935 pf=0.92 status=variable vmaxpu=1.5 vminpu=0.5 daily="RU"  
New "Load.BT_1607291_M2" bus1="UC1607291.1.2.4" phases=1 conn=Delta model=3 kv=0.440000000 kw = 0.0009935 pf=0.92 status=variable vmaxpu=1.5 vminpu=0.5 daily="RU" 
New "Load.BT_606124_M1" bus1="UC606124.1.4" phases=1 conn=Wye model=2 kv=0.220000000 kw = 0.0 pf=0.92 status=variable vmaxpu=1.5 vminpu=0.5 daily="RU"  
New "Load.BT_606124_M2" bus1="UC606124.1.4" phases=1 conn=Wye model=3 kv=0.220000000 kw = 0.0 pf=0.92 status=variable vmaxpu=1.5 vminpu=0.5 daily="RU" 
New "Load.BT_637360_M1" bus1="UC637360.1.2.3.4" phases=3 conn=Delta model=2 kv=0.380000000 kw = 4.4660875 pf=0.92 status=variable vmaxpu=1.5 vminpu=0.5 daily="RU"  
New "Load.BT_637360_M2" bus1="UC637360.1.2.3.4" phases=3 conn=Delta model=3 kv=0.380000000 kw = 4.4660875 pf=0.92 status=variable vmaxpu=1.5 vminpu=0.5 daily="RU" 
New "Load.BT_622709_M1" bus1="UC622709.2.4" phases=1 conn=Wye model=2 kv=0.220000000 kw = 0.213526 pf=0.92 status=variable vmaxpu=1.5 vminpu=0.5 daily="RU"  
New "Load.BT_622709_M2" bus1="UC622709.2.4" phases=1 conn=Wye model=3 kv=0.220000000 kw = 0.213526 pf=0.92 status=variable vmaxpu=1.5 vminpu=0.5 daily="RU" 
New "Load.BT_632016_M1" bus1="UC632016.1.4" phases=1 conn=Wye model=2 kv=0.220000000 kw = 0.068218 pf=0.92 status=variable vmaxpu=1.5 vminpu=0.5 daily="RU"  
New "Load.BT_632016_M2" bus1="UC632016.1.4" phases=1 conn=Wye model=3 kv=0.220000000 kw = 0.068218 pf=0.92 status=variable vmaxpu=1.5 vminpu=0.5 daily="RU" 
New "Load.BT_626678_M1" bus1="UC626678.1.4" phases=1 conn=Wye model=2 kv=0.220000000 kw = 0.713664 pf=0.92 status=variable vmaxpu=1.5 vminpu=0.5 daily="RU"  
New "Load.BT_626678_M2" bus1="UC626678.1.4" phases=1 conn=Wye model=3 kv=0.220000000 kw = 0.713664 pf=0.92 status=variable vmaxpu=1.5 vminpu=0.5 daily="RU" 
New "Load.BT_605813_M1" bus1="UC605813.1.2.4" phases=1 conn=Delta model=2 kv=0.380000000 kw = 0.2117135 pf=0.92 status=variable vmaxpu=1.5 vminpu=0.5 daily="RU"  
New "Load.BT_605813_M2" bus1="UC605813.1.2.4" phases=1 conn=Delta model=3 kv=0.380000000 kw = 0.2117135 pf=0.92 status=variable vmaxpu=1.5 vminpu=0.5 daily="RU" 
New "Load.BT_606130_M1" bus1="UC606130.1.2.4" phases=1 conn=Delta model=2 kv=0.440000000 kw = 0.381764 pf=0.92 status=variable vmaxpu=1.5 vminpu=0.5 daily="RU"  
New "Load.BT_606130_M2" bus1="UC606130.1.2.4" phases=1 conn=Delta model=3 kv=0.440000000 kw = 0.381764 pf=0.92 status=variable vmaxpu=1.5 vminpu=0.5 daily="RU" 
New "Load.BT_1637704_M1" bus1="UC1637704.2.4" phases=1 conn=Wye model=2 kv=0.220000000 kw = 0.0161005 pf=0.92 status=variable vmaxpu=1.5 vminpu=0.5 daily="RU"  
New "Load.BT_1637704_M2" bus1="UC1637704.2.4" phases=1 conn=Wye model=3 kv=0.220000000 kw = 0.0161005 pf=0.92 status=variable vmaxpu=1.5 vminpu=0.5 daily="RU" 
New "Load.BT_1131858_M1" bus1="UC1131858.2.4" phases=1 conn=Wye model=2 kv=0.220000000 kw = 0.20575 pf=0.92 status=variable vmaxpu=1.5 vminpu=0.5 daily="RU"  
New "Load.BT_1131858_M2" bus1="UC1131858.2.4" phases=1 conn=Wye model=3 kv=0.220000000 kw = 0.20575 pf=0.92 status=variable vmaxpu=1.5 vminpu=0.5 daily="RU" 
New "Load.BT_635862_M1" bus1="UC635862.1.2.3.4" phases=3 conn=Delta model=2 kv=0.380000000 kw = 0.4061615 pf=0.92 status=variable vmaxpu=1.5 vminpu=0.5 daily="RU"  
New "Load.BT_635862_M2" bus1="UC635862.1.2.3.4" phases=3 conn=Delta model=3 kv=0.380000000 kw = 0.4061615 pf=0.92 status=variable vmaxpu=1.5 vminpu=0.5 daily="RU" 
New "Load.BT_1607276_M1" bus1="UC1607276.2.4" phases=1 conn=Wye model=2 kv=0.220000000 kw = 0.21674 pf=0.92 status=variable vmaxpu=1.5 vminpu=0.5 daily="RU"  
New "Load.BT_1607276_M2" bus1="UC1607276.2.4" phases=1 conn=Wye model=3 kv=0.220000000 kw = 0.21674 pf=0.92 status=variable vmaxpu=1.5 vminpu=0.5 daily="RU" 
New "Load.BT_632613_M1" bus1="UC632613.1.4" phases=1 conn=Wye model=2 kv=0.220000000 kw = 0.316543 pf=0.92 status=variable vmaxpu=1.5 vminpu=0.5 daily="RU"  
New "Load.BT_632613_M2" bus1="UC632613.1.4" phases=1 conn=Wye model=3 kv=0.220000000 kw = 0.316543 pf=0.92 status=variable vmaxpu=1.5 vminpu=0.5 daily="RU" 
New "Load.BT_1605996_M1" bus1="UC1605996.1.4" phases=1 conn=Wye model=2 kv=0.219393102 kw = 0.0012385 pf=0.92 status=variable vmaxpu=1.5 vminpu=0.5 daily="RU"  
New "Load.BT_1605996_M2" bus1="UC1605996.1.4" phases=1 conn=Wye model=3 kv=0.219393102 kw = 0.0012385 pf=0.92 status=variable vmaxpu=1.5 vminpu=0.5 daily="RU" 
New "Load.BT_1626487_M1" bus1="UC1626487.1.4" phases=1 conn=Wye model=2 kv=0.220000000 kw = 0.0590265 pf=0.92 status=variable vmaxpu=1.5 vminpu=0.5 daily="RU"  
New "Load.BT_1626487_M2" bus1="UC1626487.1.4" phases=1 conn=Wye model=3 kv=0.220000000 kw = 0.0590265 pf=0.92 status=variable vmaxpu=1.5 vminpu=0.5 daily="RU" 
New "Load.BT_1607305_M1" bus1="UC1607305.1.4" phases=1 conn=Wye model=2 kv=0.219393102 kw = 0.4926085 pf=0.92 status=variable vmaxpu=1.5 vminpu=0.5 daily="RU"  
New "Load.BT_1607305_M2" bus1="UC1607305.1.4" phases=1 conn=Wye model=3 kv=0.219393102 kw = 0.4926085 pf=0.92 status=variable vmaxpu=1.5 vminpu=0.5 daily="RU" 
New "Load.BT_606120_M1" bus1="UC606120.1.2.3.4" phases=3 conn=Delta model=2 kv=0.380000000 kw = 0.6415755 pf=0.92 status=variable vmaxpu=1.5 vminpu=0.5 daily="RU"  
New "Load.BT_606120_M2" bus1="UC606120.1.2.3.4" phases=3 conn=Delta model=3 kv=0.380000000 kw = 0.6415755 pf=0.92 status=variable vmaxpu=1.5 vminpu=0.5 daily="RU" 

New "Load.BT_3422597_M1" bus1="UC3422597.1.4" phases=1 conn=Wye model=2 kv=0.220000000 kw = 0.378699 pf=0.92 status=variable vmaxpu=1.5 vminpu=0.5 daily="RU"  
New "Load.BT_3422597_M2" bus1="UC3422597.1.4" phases=1 conn=Wye model=3 kv=0.220000000 kw = 0.378699 pf=0.92 status=variable vmaxpu=1.5 vminpu=0.5 daily="RU" 
New "Load.BT_609682_M1" bus1="UC609682.1.2.4" phases=1 conn=Delta model=2 kv=0.440000000 kw = 0.492309 pf=0.92 status=variable vmaxpu=1.5 vminpu=0.5 daily="RU"  
New "Load.BT_609682_M2" bus1="UC609682.1.2.4" phases=1 conn=Delta model=3 kv=0.440000000 kw = 0.492309 pf=0.92 status=variable vmaxpu=1.5 vminpu=0.5 daily="RU" 
New "Load.BT_1605991_M1" bus1="UC1605991.1.4" phases=1 conn=Wye model=2 kv=0.220000000 kw = 0.563567 pf=0.92 status=variable vmaxpu=1.5 vminpu=0.5 daily="RU"  
New "Load.BT_1605991_M2" bus1="UC1605991.1.4" phases=1 conn=Wye model=3 kv=0.220000000 kw = 0.563567 pf=0.92 status=variable vmaxpu=1.5 vminpu=0.5 daily="RU" 
New "Load.BT_635550_M1" bus1="UC635550.1.2.3.4" phases=3 conn=Delta model=2 kv=0.380000000 kw = 0.2508735 pf=0.92 status=variable vmaxpu=1.5 vminpu=0.5 daily="RU"  
New "Load.BT_635550_M2" bus1="UC635550.1.2.3.4" phases=3 conn=Delta model=3 kv=0.380000000 kw = 0.2508735 pf=0.92 status=variable vmaxpu=1.5 vminpu=0.5 daily="RU" 
New "Load.BT_1107333_M1" bus1="UC1107333.2.4" phases=1 conn=Wye model=2 kv=0.220000000 kw = 0.14313 pf=0.92 status=variable vmaxpu=1.5 vminpu=0.5 daily="RU"  
New "Load.BT_1107333_M2" bus1="UC1107333.2.4" phases=1 conn=Wye model=3 kv=0.220000000 kw = 0.14313 pf=0.92 status=variable vmaxpu=1.5 vminpu=0.5 daily="RU" 
New "Load.BT_605910_M1" bus1="UC605910.1.2.3.4" phases=3 conn=Delta model=2 kv=0.380000000 kw = 1.073302 pf=0.92 status=variable vmaxpu=1.5 vminpu=0.5 daily="RU"  
New "Load.BT_605910_M2" bus1="UC605910.1.2.3.4" phases=3 conn=Delta model=3 kv=0.380000000 kw = 1.073302 pf=0.92 status=variable vmaxpu=1.5 vminpu=0.5 daily="RU" 
New "Load.BT_605908_M1" bus1="UC605908.2.4" phases=1 conn=Wye model=2 kv=0.220000000 kw = 0.0089455 pf=0.92 status=variable vmaxpu=1.5 vminpu=0.5 daily="RU"  
New "Load.BT_605908_M2" bus1="UC605908.2.4" phases=1 conn=Wye model=3 kv=0.220000000 kw = 0.0089455 pf=0.92 status=variable vmaxpu=1.5 vminpu=0.5 daily="RU" 
New "Load.BT_623433_M1" bus1="UC623433.2.4" phases=1 conn=Wye model=2 kv=0.219393102 kw = 0.605688 pf=0.92 status=variable vmaxpu=1.5 vminpu=0.5 daily="RU"  
New "Load.BT_623433_M2" bus1="UC623433.2.4" phases=1 conn=Wye model=3 kv=0.219393102 kw = 0.605688 pf=0.92 status=variable vmaxpu=1.5 vminpu=0.5 daily="RU" 
New "Load.BT_1607255_M1" bus1="UC1607255.2.4" phases=1 conn=Wye model=2 kv=0.219393102 kw = 0.547801 pf=0.92 status=variable vmaxpu=1.5 vminpu=0.5 daily="RU"  
New "Load.BT_1607255_M2" bus1="UC1607255.2.4" phases=1 conn=Wye model=3 kv=0.219393102 kw = 0.547801 pf=0.92 status=variable vmaxpu=1.5 vminpu=0.5 daily="RU" 
New "Load.BT_639280_M1" bus1="UC639280.1.2.3.4" phases=3 conn=Delta model=2 kv=0.380000000 kw = 0.0 pf=0.92 status=variable vmaxpu=1.5 vminpu=0.5 daily="RU"  
New "Load.BT_639280_M2" bus1="UC639280.1.2.3.4" phases=3 conn=Delta model=3 kv=0.380000000 kw = 0.0 pf=0.92 status=variable vmaxpu=1.5 vminpu=0.5 daily="RU" 
New "Load.BT_609684_M1" bus1="UC609684.1.4" phases=1 conn=Wye model=2 kv=0.220000000 kw = 0.086048 pf=0.92 status=variable vmaxpu=1.5 vminpu=0.5 daily="RU"  
New "Load.BT_609684_M2" bus1="UC609684.1.4" phases=1 conn=Wye model=3 kv=0.220000000 kw = 0.086048 pf=0.92 status=variable vmaxpu=1.5 vminpu=0.5 daily="RU" 
New "Load.BT_605989_M1" bus1="UC605989.1.4" phases=1 conn=Wye model=2 kv=0.220000000 kw = 0.227617 pf=0.92 status=variable vmaxpu=1.5 vminpu=0.5 daily="RU"  
New "Load.BT_605989_M2" bus1="UC605989.1.4" phases=1 conn=Wye model=3 kv=0.220000000 kw = 0.227617 pf=0.92 status=variable vmaxpu=1.5 vminpu=0.5 daily="RU" 
New "Load.BT_1607297_M1" bus1="UC1607297.1.2.4" phases=1 conn=Delta model=2 kv=0.440000000 kw = 0.20978 pf=0.92 status=variable vmaxpu=1.5 vminpu=0.5 daily="RU"  
New "Load.BT_1607297_M2" bus1="UC1607297.1.2.4" phases=1 conn=Delta model=3 kv=0.440000000 kw = 0.20978 pf=0.92 status=variable vmaxpu=1.5 vminpu=0.5 daily="RU" 
New "Load.BT_1620360_M1" bus1="UC1620360.1.4" phases=1 conn=Wye model=2 kv=0.220000000 kw = 0.113927 pf=0.92 status=variable vmaxpu=1.5 vminpu=0.5 daily="RU"  
New "Load.BT_1620360_M2" bus1="UC1620360.1.4" phases=1 conn=Wye model=3 kv=0.220000000 kw = 0.113927 pf=0.92 status=variable vmaxpu=1.5 vminpu=0.5 daily="RU" 
New "Load.BT_1607326_M1" bus1="UC1607326.2.4" phases=1 conn=Wye model=2 kv=0.220000000 kw = 0.1600745 pf=0.92 status=variable vmaxpu=1.5 vminpu=0.5 daily="RU"  
New "Load.BT_1607326_M2" bus1="UC1607326.2.4" phases=1 conn=Wye model=3 kv=0.220000000 kw = 0.1600745 pf=0.92 status=variable vmaxpu=1.5 vminpu=0.5 daily="RU" 
New "Load.BT_635963_M1" bus1="UC635963.1.2.3.4" phases=3 conn=Delta model=2 kv=0.380000000 kw = 0.5487995 pf=0.92 status=variable vmaxpu=1.5 vminpu=0.5 daily="RU"  
New "Load.BT_635963_M2" bus1="UC635963.1.2.3.4" phases=3 conn=Delta model=3 kv=0.380000000 kw = 0.5487995 pf=0.92 status=variable vmaxpu=1.5 vminpu=0.5 daily="RU" 
New "Load.BT_1623434_M1" bus1="UC1623434.2.4" phases=1 conn=Wye model=2 kv=0.220000000 kw = 0.5958915 pf=0.92 status=variable vmaxpu=1.5 vminpu=0.5 daily="RU"  
New "Load.BT_1623434_M2" bus1="UC1623434.2.4" phases=1 conn=Wye model=3 kv=0.220000000 kw = 0.5958915 pf=0.92 status=variable vmaxpu=1.5 vminpu=0.5 daily="RU" 
New "Load.BT_1635060_M1" bus1="UC1635060.1.4" phases=1 conn=Wye model=2 kv=0.220000000 kw = 0.223641 pf=0.92 status=variable vmaxpu=1.5 vminpu=0.5 daily="RU"  
New "Load.BT_1635060_M2" bus1="UC1635060.1.4" phases=1 conn=Wye model=3 kv=0.220000000 kw = 0.223641 pf=0.92 status=variable vmaxpu=1.5 vminpu=0.5 daily="RU" 
New "Load.BT_606103_M1" bus1="UC606103.1.2.4" phases=1 conn=Delta model=2 kv=0.440000000 kw = 0.815209 pf=0.92 status=variable vmaxpu=1.5 vminpu=0.5 daily="RU"  
New "Load.BT_606103_M2" bus1="UC606103.1.2.4" phases=1 conn=Delta model=3 kv=0.440000000 kw = 0.815209 pf=0.92 status=variable vmaxpu=1.5 vminpu=0.5 daily="RU" 
New "Load.BT_605809_M1" bus1="UC605809.1.4" phases=1 conn=Wye model=2 kv=0.219393102 kw = 0.14313 pf=0.92 status=variable vmaxpu=1.5 vminpu=0.5 daily="RU"  
New "Load.BT_605809_M2" bus1="UC605809.1.4" phases=1 conn=Wye model=3 kv=0.219393102 kw = 0.14313 pf=0.92 status=variable vmaxpu=1.5 vminpu=0.5 daily="RU" 
New "Load.BT_3405987_M1" bus1="UC3405987.2.4" phases=1 conn=Wye model=2 kv=0.220000000 kw = 0.1616215 pf=0.92 status=variable vmaxpu=1.5 vminpu=0.5 daily="RU"  
New "Load.BT_3405987_M2" bus1="UC3405987.2.4" phases=1 conn=Wye model=3 kv=0.220000000 kw = 0.1616215 pf=0.92 status=variable vmaxpu=1.5 vminpu=0.5 daily="RU" 
New "Load.BT_1607289_M1" bus1="UC1607289.1.2.4" phases=1 conn=Delta model=2 kv=0.440000000 kw = 0.4401635 pf=0.92 status=variable vmaxpu=1.5 vminpu=0.5 daily="RU"  
New "Load.BT_1607289_M2" bus1="UC1607289.1.2.4" phases=1 conn=Delta model=3 kv=0.440000000 kw = 0.4401635 pf=0.92 status=variable vmaxpu=1.5 vminpu=0.5 daily="RU" 
New "Load.BT_1138614_M1" bus1="UC1138614.1.4" phases=1 conn=Wye model=2 kv=0.220000000 kw = 0.205792 pf=0.92 status=variable vmaxpu=1.5 vminpu=0.5 daily="RU"  
New "Load.BT_1138614_M2" bus1="UC1138614.1.4" phases=1 conn=Wye model=3 kv=0.220000000 kw = 0.205792 pf=0.92 status=variable vmaxpu=1.5 vminpu=0.5 daily="RU" 
New "Load.BT_1607303_M1" bus1="UC1607303.2.4" phases=1 conn=Wye model=2 kv=0.220000000 kw = 0.126233 pf=0.92 status=variable vmaxpu=1.5 vminpu=0.5 daily="RU"  
New "Load.BT_1607303_M2" bus1="UC1607303.2.4" phases=1 conn=Wye model=3 kv=0.220000000 kw = 0.126233 pf=0.92 status=variable vmaxpu=1.5 vminpu=0.5 daily="RU" 
New "Load.BT_607377_M1" bus1="UC607377.2.4" phases=1 conn=Wye model=2 kv=0.220000000 kw = 0.141129 pf=0.92 status=variable vmaxpu=1.5 vminpu=0.5 daily="RU"  
New "Load.BT_607377_M2" bus1="UC607377.2.4" phases=1 conn=Wye model=3 kv=0.220000000 kw = 0.141129 pf=0.92 status=variable vmaxpu=1.5 vminpu=0.5 daily="RU" 
New "Load.BT_605970_M1" bus1="UC605970.1.4" phases=1 conn=Wye model=2 kv=0.220000000 kw = 0.0590265 pf=0.92 status=variable vmaxpu=1.5 vminpu=0.5 daily="RU"  
New "Load.BT_605970_M2" bus1="UC605970.1.4" phases=1 conn=Wye model=3 kv=0.220000000 kw = 0.0590265 pf=0.92 status=variable vmaxpu=1.5 vminpu=0.5 daily="RU" 
New "Load.BT_1607278_M1" bus1="UC1607278.1.2.4" phases=1 conn=Delta model=2 kv=0.440000000 kw = 0.7514345 pf=0.92 status=variable vmaxpu=1.5 vminpu=0.5 daily="RU"  
New "Load.BT_1607278_M2" bus1="UC1607278.1.2.4" phases=1 conn=Delta model=3 kv=0.440000000 kw = 0.7514345 pf=0.92 status=variable vmaxpu=1.5 vminpu=0.5 daily="RU" 
New "Load.BT_605884_M1" bus1="UC605884.1.4" phases=1 conn=Wye model=2 kv=0.220000000 kw = 0.099396 pf=0.92 status=variable vmaxpu=1.5 vminpu=0.5 daily="RU"  
New "Load.BT_605884_M2" bus1="UC605884.1.4" phases=1 conn=Wye model=3 kv=0.220000000 kw = 0.099396 pf=0.92 status=variable vmaxpu=1.5 vminpu=0.5 daily="RU" 
New "Load.BT_637918_M1" bus1="UC637918.1.2.3.4" phases=3 conn=Delta model=2 kv=0.380000000 kw = 2.016685 pf=0.92 status=variable vmaxpu=1.5 vminpu=0.5 daily="RU"  
New "Load.BT_637918_M2" bus1="UC637918.1.2.3.4" phases=3 conn=Delta model=3 kv=0.380000000 kw = 2.016685 pf=0.92 status=variable vmaxpu=1.5 vminpu=0.5 daily="RU" 
New "Load.BT_606143_M1" bus1="UC606143.1.2.4" phases=1 conn=Delta model=2 kv=0.440000000 kw = 0.573405 pf=0.92 status=variable vmaxpu=1.5 vminpu=0.5 daily="RU"  
New "Load.BT_606143_M2" bus1="UC606143.1.2.4" phases=1 conn=Delta model=3 kv=0.440000000 kw = 0.573405 pf=0.92 status=variable vmaxpu=1.5 vminpu=0.5 daily="RU" 
New "Load.BT_605909_M1" bus1="UC605909.1.2.4" phases=1 conn=Delta model=2 kv=0.440000000 kw = 0.201737 pf=0.92 status=variable vmaxpu=1.5 vminpu=0.5 daily="RU"  
New "Load.BT_605909_M2" bus1="UC605909.1.2.4" phases=1 conn=Delta model=3 kv=0.440000000 kw = 0.201737 pf=0.92 status=variable vmaxpu=1.5 vminpu=0.5 daily="RU" 
New "Load.BT_622257_M1" bus1="UC622257.1.4" phases=1 conn=Wye model=2 kv=0.220000000 kw = 0.0692655 pf=0.92 status=variable vmaxpu=1.5 vminpu=0.5 daily="RU"  
New "Load.BT_622257_M2" bus1="UC622257.1.4" phases=1 conn=Wye model=3 kv=0.220000000 kw = 0.0692655 pf=0.92 status=variable vmaxpu=1.5 vminpu=0.5 daily="RU" 
New "Load.BT_3422706_M1" bus1="UC3422706.1.4" phases=1 conn=Wye model=2 kv=0.220000000 kw = 0.1559995 pf=0.92 status=variable vmaxpu=1.5 vminpu=0.5 daily="RU"  
New "Load.BT_3422706_M2" bus1="UC3422706.1.4" phases=1 conn=Wye model=3 kv=0.220000000 kw = 0.1559995 pf=0.92 status=variable vmaxpu=1.5 vminpu=0.5 daily="RU" 
New "Load.BT_605863_M1" bus1="UC605863.1.4" phases=1 conn=Wye model=2 kv=0.219393102 kw = 0.304152 pf=0.92 status=variable vmaxpu=1.5 vminpu=0.5 daily="RU"  
New "Load.BT_605863_M2" bus1="UC605863.1.4" phases=1 conn=Wye model=3 kv=0.219393102 kw = 0.304152 pf=0.92 status=variable vmaxpu=1.5 vminpu=0.5 daily="RU" 
New "Load.BT_1107340_M1" bus1="UC1107340.1.4" phases=1 conn=Wye model=2 kv=0.220000000 kw = 0.6282155 pf=0.92 status=variable vmaxpu=1.5 vminpu=0.5 daily="RU"  
New "Load.BT_1107340_M2" bus1="UC1107340.1.4" phases=1 conn=Wye model=3 kv=0.220000000 kw = 0.6282155 pf=0.92 status=variable vmaxpu=1.5 vminpu=0.5 daily="RU" 
New "Load.BT_1633671_M1" bus1="UC1633671.1.2.3.4" phases=3 conn=Delta model=2 kv=0.380000000 kw = 2.6741595 pf=0.92 status=variable vmaxpu=1.5 vminpu=0.5 daily="RU"  
New "Load.BT_1633671_M2" bus1="UC1633671.1.2.3.4" phases=3 conn=Delta model=3 kv=0.380000000 kw = 2.6741595 pf=0.92 status=variable vmaxpu=1.5 vminpu=0.5 daily="RU" 
New "Load.BT_1625170_M1" bus1="UC1625170.1.4" phases=1 conn=Wye model=2 kv=0.220000000 kw = 0.2509865 pf=0.92 status=variable vmaxpu=1.5 vminpu=0.5 daily="RU"  
New "Load.BT_1625170_M2" bus1="UC1625170.1.4" phases=1 conn=Wye model=3 kv=0.220000000 kw = 0.2509865 pf=0.92 status=variable vmaxpu=1.5 vminpu=0.5 daily="RU" 
New "Load.BT_1607368_M1" bus1="UC1607368.1.2.4" phases=1 conn=Delta model=2 kv=0.440000000 kw = 0.199786 pf=0.92 status=variable vmaxpu=1.5 vminpu=0.5 daily="RU"  
New "Load.BT_1607368_M2" bus1="UC1607368.1.2.4" phases=1 conn=Delta model=3 kv=0.440000000 kw = 0.199786 pf=0.92 status=variable vmaxpu=1.5 vminpu=0.5 daily="RU" 
New "Load.BT_1607358_M1" bus1="UC1607358.1.2.4" phases=1 conn=Delta model=2 kv=0.440000000 kw = 0.5902195 pf=0.92 status=variable vmaxpu=1.5 vminpu=0.5 daily="RU"  
New "Load.BT_1607358_M2" bus1="UC1607358.1.2.4" phases=1 conn=Delta model=3 kv=0.440000000 kw = 0.5902195 pf=0.92 status=variable vmaxpu=1.5 vminpu=0.5 daily="RU" 
New "Load.BT_631859_M1" bus1="UC631859.1.4" phases=1 conn=Wye model=2 kv=0.220000000 kw = 0.141798 pf=0.92 status=variable vmaxpu=1.5 vminpu=0.5 daily="RU"  
New "Load.BT_631859_M2" bus1="UC631859.1.4" phases=1 conn=Wye model=3 kv=0.220000000 kw = 0.141798 pf=0.92 status=variable vmaxpu=1.5 vminpu=0.5 daily="RU" 
New "Load.BT_1607328_M1" bus1="UC1607328.2.4" phases=1 conn=Wye model=2 kv=0.220000000 kw = 0.213526 pf=0.92 status=variable vmaxpu=1.5 vminpu=0.5 daily="RU"  
New "Load.BT_1607328_M2" bus1="UC1607328.2.4" phases=1 conn=Wye model=3 kv=0.220000000 kw = 0.213526 pf=0.92 status=variable vmaxpu=1.5 vminpu=0.5 daily="RU" 
New "Load.BT_1633896_M1" bus1="UC1633896.1.4" phases=1 conn=Wye model=2 kv=0.220000000 kw = 0.0569615 pf=0.92 status=variable vmaxpu=1.5 vminpu=0.5 daily="RU"  
New "Load.BT_1633896_M2" bus1="UC1633896.1.4" phases=1 conn=Wye model=3 kv=0.220000000 kw = 0.0569615 pf=0.92 status=variable vmaxpu=1.5 vminpu=0.5 daily="RU" 
New "Load.BT_1607319_M1" bus1="UC1607319.1.4" phases=1 conn=Wye model=2 kv=0.220000000 kw = 0.213748 pf=0.92 status=variable vmaxpu=1.5 vminpu=0.5 daily="PP"  
New "Load.BT_1607319_M2" bus1="UC1607319.1.4" phases=1 conn=Wye model=3 kv=0.220000000 kw = 0.213748 pf=0.92 status=variable vmaxpu=1.5 vminpu=0.5 daily="PP" 
New "Load.BT_1626486_M1" bus1="UC1626486.1.4" phases=1 conn=Wye model=2 kv=0.220000000 kw = 0.6252015 pf=0.92 status=variable vmaxpu=1.5 vminpu=0.5 daily="RU"  
New "Load.BT_1626486_M2" bus1="UC1626486.1.4" phases=1 conn=Wye model=3 kv=0.220000000 kw = 0.6252015 pf=0.92 status=variable vmaxpu=1.5 vminpu=0.5 daily="RU" 
New "Load.BT_1621994_M1" bus1="UC1621994.1.4" phases=1 conn=Wye model=2 kv=0.220000000 kw = 0.728611 pf=0.92 status=variable vmaxpu=1.5 vminpu=0.5 daily="RU"  
New "Load.BT_1621994_M2" bus1="UC1621994.1.4" phases=1 conn=Wye model=3 kv=0.220000000 kw = 0.728611 pf=0.92 status=variable vmaxpu=1.5 vminpu=0.5 daily="RU" 
New "Load.BT_605821_M1" bus1="UC605821.1.2.3.4" phases=3 conn=Delta model=2 kv=0.380000000 kw = 1.0613965 pf=0.92 status=variable vmaxpu=1.5 vminpu=0.5 daily="RU"  
New "Load.BT_605821_M2" bus1="UC605821.1.2.3.4" phases=3 conn=Delta model=3 kv=0.380000000 kw = 1.0613965 pf=0.92 status=variable vmaxpu=1.5 vminpu=0.5 daily="RU" 
New "Load.BT_1607306_M1" bus1="UC1607306.1.2.4" phases=1 conn=Delta model=2 kv=0.440000000 kw = 0.4459975 pf=0.92 status=variable vmaxpu=1.5 vminpu=0.5 daily="RU"  
New "Load.BT_1607306_M2" bus1="UC1607306.1.2.4" phases=1 conn=Delta model=3 kv=0.440000000 kw = 0.4459975 pf=0.92 status=variable vmaxpu=1.5 vminpu=0.5 daily="RU" 
New "Load.BT_1635694_M1" bus1="UC1635694.1.4" phases=1 conn=Wye model=2 kv=0.220000000 kw = 0.0824135 pf=0.92 status=variable vmaxpu=1.5 vminpu=0.5 daily="RU"  
New "Load.BT_1635694_M2" bus1="UC1635694.1.4" phases=1 conn=Wye model=3 kv=0.220000000 kw = 0.0824135 pf=0.92 status=variable vmaxpu=1.5 vminpu=0.5 daily="RU" 
New "Load.BT_1607298_M1" bus1="UC1607298.1.2.3.4" phases=3 conn=Delta model=2 kv=0.380000000 kw = 0.09165 pf=0.92 status=variable vmaxpu=1.5 vminpu=0.5 daily="RU"  
New "Load.BT_1607298_M2" bus1="UC1607298.1.2.3.4" phases=3 conn=Delta model=3 kv=0.380000000 kw = 0.09165 pf=0.92 status=variable vmaxpu=1.5 vminpu=0.5 daily="RU" 
New "Load.BT_1607353_M1" bus1="UC1607353.1.4" phases=1 conn=Wye model=2 kv=0.220000000 kw = 0.2034685 pf=0.92 status=variable vmaxpu=1.5 vminpu=0.5 daily="RU"  
New "Load.BT_1607353_M2" bus1="UC1607353.1.4" phases=1 conn=Wye model=3 kv=0.220000000 kw = 0.2034685 pf=0.92 status=variable vmaxpu=1.5 vminpu=0.5 daily="RU" 
New "Load.BT_1107342_M1" bus1="UC1107342.1.4" phases=1 conn=Wye model=2 kv=0.219393102 kw = 0.163613 pf=0.92 status=variable vmaxpu=1.5 vminpu=0.5 daily="RU"  
New "Load.BT_1107342_M2" bus1="UC1107342.1.4" phases=1 conn=Wye model=3 kv=0.219393102 kw = 0.163613 pf=0.92 status=variable vmaxpu=1.5 vminpu=0.5 daily="RU" 
New "Load.BT_606139_M1" bus1="UC606139.1.2.4" phases=1 conn=Delta model=2 kv=0.440000000 kw = 0.420216 pf=0.92 status=variable vmaxpu=1.5 vminpu=0.5 daily="RU"  
New "Load.BT_606139_M2" bus1="UC606139.1.2.4" phases=1 conn=Delta model=3 kv=0.440000000 kw = 0.420216 pf=0.92 status=variable vmaxpu=1.5 vminpu=0.5 daily="RU" 
New "Load.BT_637576_M1" bus1="UC637576.1.2.3.4" phases=3 conn=Delta model=2 kv=0.380000000 kw = 1.9065445 pf=0.92 status=variable vmaxpu=1.5 vminpu=0.5 daily="RU"  
New "Load.BT_637576_M2" bus1="UC637576.1.2.3.4" phases=3 conn=Delta model=3 kv=0.380000000 kw = 1.9065445 pf=0.92 status=variable vmaxpu=1.5 vminpu=0.5 daily="RU" 
New "Load.BT_605993_M1" bus1="UC605993.1.4" phases=1 conn=Wye model=2 kv=0.220000000 kw = 0.4637835 pf=0.92 status=variable vmaxpu=1.5 vminpu=0.5 daily="RU"  
New "Load.BT_605993_M2" bus1="UC605993.1.4" phases=1 conn=Wye model=3 kv=0.220000000 kw = 0.4637835 pf=0.92 status=variable vmaxpu=1.5 vminpu=0.5 daily="RU" 
New "Load.BT_606122_M1" bus1="UC606122.1.2.3.4" phases=3 conn=Delta model=2 kv=0.380000000 kw = 1.395412 pf=0.92 status=variable vmaxpu=1.5 vminpu=0.5 daily="RU"  
New "Load.BT_606122_M2" bus1="UC606122.1.2.3.4" phases=3 conn=Delta model=3 kv=0.380000000 kw = 1.395412 pf=0.92 status=variable vmaxpu=1.5 vminpu=0.5 daily="RU" 
New "Load.BT_606102_M1" bus1="UC606102.1.4" phases=1 conn=Wye model=2 kv=0.219393102 kw = 0.0602575 pf=0.92 status=variable vmaxpu=1.5 vminpu=0.5 daily="RE"  
New "Load.BT_606102_M2" bus1="UC606102.1.4" phases=1 conn=Wye model=3 kv=0.219393102 kw = 0.0602575 pf=0.92 status=variable vmaxpu=1.5 vminpu=0.5 daily="RE" 
New "Load.BT_1607273_M1" bus1="UC1607273.1.2.4" phases=1 conn=Delta model=2 kv=0.440000000 kw = 0.307835 pf=0.92 status=variable vmaxpu=1.5 vminpu=0.5 daily="RU"  
New "Load.BT_1607273_M2" bus1="UC1607273.1.2.4" phases=1 conn=Delta model=3 kv=0.440000000 kw = 0.307835 pf=0.92 status=variable vmaxpu=1.5 vminpu=0.5 daily="RU" 
New "Load.BT_609685_M1" bus1="UC609685.2.4" phases=1 conn=Wye model=2 kv=0.220000000 kw = 0.1290075 pf=0.92 status=variable vmaxpu=1.5 vminpu=0.5 daily="RU"  
New "Load.BT_609685_M2" bus1="UC609685.2.4" phases=1 conn=Wye model=3 kv=0.220000000 kw = 0.1290075 pf=0.92 status=variable vmaxpu=1.5 vminpu=0.5 daily="RU" 
New "Load.BT_1107330_M1" bus1="UC1107330.1.4" phases=1 conn=Wye model=2 kv=0.220000000 kw = 0.3814625 pf=0.92 status=variable vmaxpu=1.5 vminpu=0.5 daily="RU"  
New "Load.BT_1107330_M2" bus1="UC1107330.1.4" phases=1 conn=Wye model=3 kv=0.220000000 kw = 0.3814625 pf=0.92 status=variable vmaxpu=1.5 vminpu=0.5 daily="RU" 

New "Load.BT_606148_M1" bus1="UC606148.1.2.4" phases=1 conn=Delta model=2 kv=0.440000000 kw = 0.1042275 pf=0.92 status=variable vmaxpu=1.5 vminpu=0.5 daily="RU"  
New "Load.BT_606148_M2" bus1="UC606148.1.2.4" phases=1 conn=Delta model=3 kv=0.440000000 kw = 0.1042275 pf=0.92 status=variable vmaxpu=1.5 vminpu=0.5 daily="RU" 
New "Load.BT_622720_M1" bus1="UC622720.2.4" phases=1 conn=Wye model=2 kv=0.220000000 kw = 0.1250665 pf=0.92 status=variable vmaxpu=1.5 vminpu=0.5 daily="RU"  
New "Load.BT_622720_M2" bus1="UC622720.2.4" phases=1 conn=Wye model=3 kv=0.220000000 kw = 0.1250665 pf=0.92 status=variable vmaxpu=1.5 vminpu=0.5 daily="RU" 
New "Load.BT_622703_M1" bus1="UC622703.1.4" phases=1 conn=Wye model=2 kv=0.219393102 kw = 0.196846 pf=0.92 status=variable vmaxpu=1.5 vminpu=0.5 daily="RE"  
New "Load.BT_622703_M2" bus1="UC622703.1.4" phases=1 conn=Wye model=3 kv=0.219393102 kw = 0.196846 pf=0.92 status=variable vmaxpu=1.5 vminpu=0.5 daily="RE" 
New "Load.BT_1629639_M1" bus1="UC1629639.1.4" phases=1 conn=Wye model=2 kv=0.220000000 kw = 0.2683255 pf=0.92 status=variable vmaxpu=1.5 vminpu=0.5 daily="RU"  
New "Load.BT_1629639_M2" bus1="UC1629639.1.4" phases=1 conn=Wye model=3 kv=0.220000000 kw = 0.2683255 pf=0.92 status=variable vmaxpu=1.5 vminpu=0.5 daily="RU" 
New "Load.BT_1607258_M1" bus1="UC1607258.1.2.4" phases=1 conn=Delta model=2 kv=0.440000000 kw = 0.667699 pf=0.92 status=variable vmaxpu=1.5 vminpu=0.5 daily="RU"  
New "Load.BT_1607258_M2" bus1="UC1607258.1.2.4" phases=1 conn=Delta model=3 kv=0.440000000 kw = 0.667699 pf=0.92 status=variable vmaxpu=1.5 vminpu=0.5 daily="RU" 
New "Load.BT_606111_M1" bus1="UC606111.1.2.3.4" phases=3 conn=Delta model=2 kv=0.380000000 kw = 0.2266345 pf=0.92 status=variable vmaxpu=1.5 vminpu=0.5 daily="RU"  
New "Load.BT_606111_M2" bus1="UC606111.1.2.3.4" phases=3 conn=Delta model=3 kv=0.380000000 kw = 0.2266345 pf=0.92 status=variable vmaxpu=1.5 vminpu=0.5 daily="RU" 
New "Load.BT_1633892_M1" bus1="UC1633892.1.4" phases=1 conn=Wye model=2 kv=0.220000000 kw = 0.20575 pf=0.92 status=variable vmaxpu=1.5 vminpu=0.5 daily="RU"  
New "Load.BT_1633892_M2" bus1="UC1633892.1.4" phases=1 conn=Wye model=3 kv=0.220000000 kw = 0.20575 pf=0.92 status=variable vmaxpu=1.5 vminpu=0.5 daily="RU" 
New "Load.BT_605990_M1" bus1="UC605990.2.4" phases=1 conn=Wye model=2 kv=0.219393102 kw = 0.001344 pf=0.92 status=variable vmaxpu=1.5 vminpu=0.5 daily="PP"  
New "Load.BT_605990_M2" bus1="UC605990.2.4" phases=1 conn=Wye model=3 kv=0.219393102 kw = 0.001344 pf=0.92 status=variable vmaxpu=1.5 vminpu=0.5 daily="PP" 
New "Load.BT_622722_M1" bus1="UC622722.3.4" phases=1 conn=Wye model=2 kv=0.219393102 kw = 0.0024235 pf=0.92 status=variable vmaxpu=1.5 vminpu=0.5 daily="RU"  
New "Load.BT_622722_M2" bus1="UC622722.3.4" phases=1 conn=Wye model=3 kv=0.219393102 kw = 0.0024235 pf=0.92 status=variable vmaxpu=1.5 vminpu=0.5 daily="RU" 
New "Load.BT_627343_M1" bus1="UC627343.1.4" phases=1 conn=Wye model=2 kv=0.220000000 kw = 0.5198415 pf=0.92 status=variable vmaxpu=1.5 vminpu=0.5 daily="RU"  
New "Load.BT_627343_M2" bus1="UC627343.1.4" phases=1 conn=Wye model=3 kv=0.220000000 kw = 0.5198415 pf=0.92 status=variable vmaxpu=1.5 vminpu=0.5 daily="RU" 
New "Load.BT_628766_M1" bus1="UC628766.1.2.4" phases=1 conn=Delta model=2 kv=0.440000000 kw = 0.029561 pf=0.92 status=variable vmaxpu=1.5 vminpu=0.5 daily="RU"  
New "Load.BT_628766_M2" bus1="UC628766.1.2.4" phases=1 conn=Delta model=3 kv=0.440000000 kw = 0.029561 pf=0.92 status=variable vmaxpu=1.5 vminpu=0.5 daily="RU" 
New "Load.BT_622270_M1" bus1="UC622270.2.4" phases=1 conn=Wye model=2 kv=0.220000000 kw = 0.1386045 pf=0.92 status=variable vmaxpu=1.5 vminpu=0.5 daily="RU"  
New "Load.BT_622270_M2" bus1="UC622270.2.4" phases=1 conn=Wye model=3 kv=0.220000000 kw = 0.1386045 pf=0.92 status=variable vmaxpu=1.5 vminpu=0.5 daily="RU" 
New "Load.BT_605822_M1" bus1="UC605822.2.4" phases=1 conn=Wye model=2 kv=0.220000000 kw = 0.6282155 pf=0.92 status=variable vmaxpu=1.5 vminpu=0.5 daily="RU"  
New "Load.BT_605822_M2" bus1="UC605822.2.4" phases=1 conn=Wye model=3 kv=0.220000000 kw = 0.6282155 pf=0.92 status=variable vmaxpu=1.5 vminpu=0.5 daily="RU" 
New "Load.BT_630753_M1" bus1="UC630753.2.4" phases=1 conn=Wye model=2 kv=0.219393102 kw = 0.459489 pf=0.92 status=variable vmaxpu=1.5 vminpu=0.5 daily="RU"  
New "Load.BT_630753_M2" bus1="UC630753.2.4" phases=1 conn=Wye model=3 kv=0.219393102 kw = 0.459489 pf=0.92 status=variable vmaxpu=1.5 vminpu=0.5 daily="RU" 
New "Load.BT_605812_M1" bus1="UC605812.2.4" phases=1 conn=Wye model=2 kv=0.219393102 kw = 0.316543 pf=0.92 status=variable vmaxpu=1.5 vminpu=0.5 daily="RU"  
New "Load.BT_605812_M2" bus1="UC605812.2.4" phases=1 conn=Wye model=3 kv=0.219393102 kw = 0.316543 pf=0.92 status=variable vmaxpu=1.5 vminpu=0.5 daily="RU" 
New "Load.BT_605804_M1" bus1="UC605804.1.4" phases=1 conn=Wye model=2 kv=0.220000000 kw = 0.1679795 pf=0.92 status=variable vmaxpu=1.5 vminpu=0.5 daily="RU"  
New "Load.BT_605804_M2" bus1="UC605804.1.4" phases=1 conn=Wye model=3 kv=0.220000000 kw = 0.1679795 pf=0.92 status=variable vmaxpu=1.5 vminpu=0.5 daily="RU" 
New "Load.BT_605807_M1" bus1="UC605807.2.4" phases=1 conn=Wye model=2 kv=0.219393102 kw = 0.2266345 pf=0.92 status=variable vmaxpu=1.5 vminpu=0.5 daily="RU"  
New "Load.BT_605807_M2" bus1="UC605807.2.4" phases=1 conn=Wye model=3 kv=0.219393102 kw = 0.2266345 pf=0.92 status=variable vmaxpu=1.5 vminpu=0.5 daily="RU" 
New "Load.BT_1607290_M1" bus1="UC1607290.1.4" phases=1 conn=Wye model=2 kv=0.220000000 kw = 0.0 pf=0.92 status=variable vmaxpu=1.5 vminpu=0.5 daily="RU"  
New "Load.BT_1607290_M2" bus1="UC1607290.1.4" phases=1 conn=Wye model=3 kv=0.220000000 kw = 0.0 pf=0.92 status=variable vmaxpu=1.5 vminpu=0.5 daily="RU" 
New "Load.BT_1626490_M1" bus1="UC1626490.1.4" phases=1 conn=Wye model=2 kv=0.220000000 kw = 0.3257615 pf=0.92 status=variable vmaxpu=1.5 vminpu=0.5 daily="RE"  
New "Load.BT_1626490_M2" bus1="UC1626490.1.4" phases=1 conn=Wye model=3 kv=0.220000000 kw = 0.3257615 pf=0.92 status=variable vmaxpu=1.5 vminpu=0.5 daily="RE" 
New "Load.BT_630758_M1" bus1="UC630758.1.2.4" phases=1 conn=Delta model=2 kv=0.440000000 kw = 3.305909 pf=0.92 status=variable vmaxpu=1.5 vminpu=0.5 daily="RU"  
New "Load.BT_630758_M2" bus1="UC630758.1.2.4" phases=1 conn=Delta model=3 kv=0.440000000 kw = 3.305909 pf=0.92 status=variable vmaxpu=1.5 vminpu=0.5 daily="RU" 
New "Load.BT_3405844_M1" bus1="UC3405844.1.4" phases=1 conn=Wye model=2 kv=0.220000000 kw = 0.243717 pf=0.92 status=variable vmaxpu=1.5 vminpu=0.5 daily="RU"  
New "Load.BT_3405844_M2" bus1="UC3405844.1.4" phases=1 conn=Wye model=3 kv=0.220000000 kw = 0.243717 pf=0.92 status=variable vmaxpu=1.5 vminpu=0.5 daily="RU" 
New "Load.BT_626695_M1" bus1="UC626695.1.4" phases=1 conn=Wye model=2 kv=0.219393102 kw = 0.170588 pf=0.92 status=variable vmaxpu=1.5 vminpu=0.5 daily="RE"  
New "Load.BT_626695_M2" bus1="UC626695.1.4" phases=1 conn=Wye model=3 kv=0.219393102 kw = 0.170588 pf=0.92 status=variable vmaxpu=1.5 vminpu=0.5 daily="RE" 
New "Load.BT_605827_M1" bus1="UC605827.1.4" phases=1 conn=Wye model=2 kv=0.220000000 kw = 0.150653 pf=0.92 status=variable vmaxpu=1.5 vminpu=0.5 daily="RU"  
New "Load.BT_605827_M2" bus1="UC605827.1.4" phases=1 conn=Wye model=3 kv=0.220000000 kw = 0.150653 pf=0.92 status=variable vmaxpu=1.5 vminpu=0.5 daily="RU" 
New "Load.BT_605855_M1" bus1="UC605855.1.2.4" phases=1 conn=Delta model=2 kv=0.440000000 kw = 0.942137 pf=0.92 status=variable vmaxpu=1.5 vminpu=0.5 daily="RU"  
New "Load.BT_605855_M2" bus1="UC605855.1.2.4" phases=1 conn=Delta model=3 kv=0.440000000 kw = 0.942137 pf=0.92 status=variable vmaxpu=1.5 vminpu=0.5 daily="RU" 
New "Load.BT_605988_M1" bus1="UC605988.2.4" phases=1 conn=Wye model=2 kv=0.219393102 kw = 0.2480435 pf=0.92 status=variable vmaxpu=1.5 vminpu=0.5 daily="RU"  
New "Load.BT_605988_M2" bus1="UC605988.2.4" phases=1 conn=Wye model=3 kv=0.219393102 kw = 0.2480435 pf=0.92 status=variable vmaxpu=1.5 vminpu=0.5 daily="RU" 
New "Load.BT_621171_M1" bus1="UC621171.1.2.3.4" phases=3 conn=Delta model=2 kv=0.380000000 kw = 0.77751 pf=0.92 status=variable vmaxpu=1.5 vminpu=0.5 daily="RU"  
New "Load.BT_621171_M2" bus1="UC621171.1.2.3.4" phases=3 conn=Delta model=3 kv=0.380000000 kw = 0.77751 pf=0.92 status=variable vmaxpu=1.5 vminpu=0.5 daily="RU" 
New "Load.BT_3405845_M1" bus1="UC3405845.1.4" phases=1 conn=Wye model=2 kv=0.220000000 kw = 0.277209 pf=0.92 status=variable vmaxpu=1.5 vminpu=0.5 daily="RU"  
New "Load.BT_3405845_M2" bus1="UC3405845.1.4" phases=1 conn=Wye model=3 kv=0.220000000 kw = 0.277209 pf=0.92 status=variable vmaxpu=1.5 vminpu=0.5 daily="RU" 
New "Load.BT_1638954_M1" bus1="UC1638954.2.4" phases=1 conn=Wye model=2 kv=0.220000000 kw = 0.7251885 pf=0.92 status=variable vmaxpu=1.5 vminpu=0.5 daily="RU"  
New "Load.BT_1638954_M2" bus1="UC1638954.2.4" phases=1 conn=Wye model=3 kv=0.220000000 kw = 0.7251885 pf=0.92 status=variable vmaxpu=1.5 vminpu=0.5 daily="RU" 
New "Load.BT_3405838_M1" bus1="UC3405838.2.4" phases=1 conn=Wye model=2 kv=0.220000000 kw = 0.3408925 pf=0.92 status=variable vmaxpu=1.5 vminpu=0.5 daily="RU"  
New "Load.BT_3405838_M2" bus1="UC3405838.2.4" phases=1 conn=Wye model=3 kv=0.220000000 kw = 0.3408925 pf=0.92 status=variable vmaxpu=1.5 vminpu=0.5 daily="RU" 
New "Load.BT_627328_M1" bus1="UC627328.2.4" phases=1 conn=Wye model=2 kv=0.219393102 kw = 0.3895915 pf=0.92 status=variable vmaxpu=1.5 vminpu=0.5 daily="RU"  
New "Load.BT_627328_M2" bus1="UC627328.2.4" phases=1 conn=Wye model=3 kv=0.219393102 kw = 0.3895915 pf=0.92 status=variable vmaxpu=1.5 vminpu=0.5 daily="RU" 
New "Load.BT_637705_M1" bus1="UC637705.2.4" phases=1 conn=Wye model=2 kv=0.220000000 kw = 0.218689 pf=0.92 status=variable vmaxpu=1.5 vminpu=0.5 daily="RE"  
New "Load.BT_637705_M2" bus1="UC637705.2.4" phases=1 conn=Wye model=3 kv=0.220000000 kw = 0.218689 pf=0.92 status=variable vmaxpu=1.5 vminpu=0.5 daily="RE" 
New "Load.BT_605896_M1" bus1="UC605896.1.2.4" phases=1 conn=Delta model=2 kv=0.380000000 kw = 0.067538 pf=0.92 status=variable vmaxpu=1.5 vminpu=0.5 daily="CO"  
New "Load.BT_605896_M2" bus1="UC605896.1.2.4" phases=1 conn=Delta model=3 kv=0.380000000 kw = 0.067538 pf=0.92 status=variable vmaxpu=1.5 vminpu=0.5 daily="CO" 
New "Load.BT_605873_M1" bus1="UC605873.1.4" phases=1 conn=Wye model=2 kv=0.220000000 kw = 0.007492 pf=0.92 status=variable vmaxpu=1.5 vminpu=0.5 daily="RU"  
New "Load.BT_605873_M2" bus1="UC605873.1.4" phases=1 conn=Wye model=3 kv=0.220000000 kw = 0.007492 pf=0.92 status=variable vmaxpu=1.5 vminpu=0.5 daily="RU" 
New "Load.BT_623007_M1" bus1="UC623007.1.2.3.4" phases=3 conn=Delta model=2 kv=0.380000000 kw = 1.42508 pf=0.92 status=variable vmaxpu=1.5 vminpu=0.5 daily="RU"  
New "Load.BT_623007_M2" bus1="UC623007.1.2.3.4" phases=3 conn=Delta model=3 kv=0.380000000 kw = 1.42508 pf=0.92 status=variable vmaxpu=1.5 vminpu=0.5 daily="RU" 
New "Load.BT_606121_M1" bus1="UC606121.1.2.3.4" phases=3 conn=Delta model=2 kv=0.380000000 kw = 1.760654 pf=0.92 status=variable vmaxpu=1.5 vminpu=0.5 daily="RU"  
New "Load.BT_606121_M2" bus1="UC606121.1.2.3.4" phases=3 conn=Delta model=3 kv=0.380000000 kw = 1.760654 pf=0.92 status=variable vmaxpu=1.5 vminpu=0.5 daily="RU" 
New "Load.BT_1627321_M1" bus1="UC1627321.1.4" phases=1 conn=Wye model=2 kv=0.220000000 kw = 0.355567 pf=0.92 status=variable vmaxpu=1.5 vminpu=0.5 daily="RU"  
New "Load.BT_1627321_M2" bus1="UC1627321.1.4" phases=1 conn=Wye model=3 kv=0.220000000 kw = 0.355567 pf=0.92 status=variable vmaxpu=1.5 vminpu=0.5 daily="RU" 
New "Load.BT_605829_M1" bus1="UC605829.1.4" phases=1 conn=Wye model=2 kv=0.220000000 kw = 0.2417295 pf=0.92 status=variable vmaxpu=1.5 vminpu=0.5 daily="RU"  
New "Load.BT_605829_M2" bus1="UC605829.1.4" phases=1 conn=Wye model=3 kv=0.220000000 kw = 0.2417295 pf=0.92 status=variable vmaxpu=1.5 vminpu=0.5 daily="RU" 
New "Load.BT_605806_M1" bus1="UC605806.1.4" phases=1 conn=Wye model=2 kv=0.219393102 kw = 0.403625 pf=0.92 status=variable vmaxpu=1.5 vminpu=0.5 daily="RU"  
New "Load.BT_605806_M2" bus1="UC605806.1.4" phases=1 conn=Wye model=3 kv=0.219393102 kw = 0.403625 pf=0.92 status=variable vmaxpu=1.5 vminpu=0.5 daily="RU" 
New "Load.BT_1629422_M1" bus1="UC1629422.1.2.3.4" phases=3 conn=Delta model=2 kv=0.380000000 kw = 0.144906 pf=0.92 status=variable vmaxpu=1.5 vminpu=0.5 daily="RU"  
New "Load.BT_1629422_M2" bus1="UC1629422.1.2.3.4" phases=3 conn=Delta model=3 kv=0.380000000 kw = 0.144906 pf=0.92 status=variable vmaxpu=1.5 vminpu=0.5 daily="RU" 
New "Load.BT_605905_M1" bus1="UC605905.2.4" phases=1 conn=Wye model=2 kv=0.219393102 kw = 0.6590465 pf=0.92 status=variable vmaxpu=1.5 vminpu=0.5 daily="RU"  
New "Load.BT_605905_M2" bus1="UC605905.2.4" phases=1 conn=Wye model=3 kv=0.219393102 kw = 0.6590465 pf=0.92 status=variable vmaxpu=1.5 vminpu=0.5 daily="RU" 

New "Load.BT_605865_M1" bus1="UC605865.1.2.4" phases=1 conn=Delta model=2 kv=0.380000000 kw = 0.0337295 pf=0.92 status=variable vmaxpu=1.5 vminpu=0.5 daily="RU"  
New "Load.BT_605865_M2" bus1="UC605865.1.2.4" phases=1 conn=Delta model=3 kv=0.380000000 kw = 0.0337295 pf=0.92 status=variable vmaxpu=1.5 vminpu=0.5 daily="RU" 
New "Load.BT_1607265_M1" bus1="UC1607265.1.4" phases=1 conn=Wye model=2 kv=0.220000000 kw = 1.0228855 pf=0.92 status=variable vmaxpu=1.5 vminpu=0.5 daily="RU"  
New "Load.BT_1607265_M2" bus1="UC1607265.1.4" phases=1 conn=Wye model=3 kv=0.220000000 kw = 1.0228855 pf=0.92 status=variable vmaxpu=1.5 vminpu=0.5 daily="RU" 
New "Load.BT_622777_M1" bus1="UC622777.1.4" phases=1 conn=Wye model=2 kv=0.220000000 kw = 0.0898205 pf=0.92 status=variable vmaxpu=1.5 vminpu=0.5 daily="RU"  
New "Load.BT_622777_M2" bus1="UC622777.1.4" phases=1 conn=Wye model=3 kv=0.220000000 kw = 0.0898205 pf=0.92 status=variable vmaxpu=1.5 vminpu=0.5 daily="RU" 

New "Load.BT_1137150_M1" bus1="UC1137150.1.4" phases=1 conn=Wye model=2 kv=0.220000000 kw = 0.121656 pf=0.92 status=variable vmaxpu=1.5 vminpu=0.5 daily="RU"  
New "Load.BT_1137150_M2" bus1="UC1137150.1.4" phases=1 conn=Wye model=3 kv=0.220000000 kw = 0.121656 pf=0.92 status=variable vmaxpu=1.5 vminpu=0.5 daily="RU" 
New "Load.BT_1607271_M1" bus1="UC1607271.1.4" phases=1 conn=Wye model=2 kv=0.220000000 kw = 0.1236755 pf=0.92 status=variable vmaxpu=1.5 vminpu=0.5 daily="RU"  
New "Load.BT_1607271_M2" bus1="UC1607271.1.4" phases=1 conn=Wye model=3 kv=0.220000000 kw = 0.1236755 pf=0.92 status=variable vmaxpu=1.5 vminpu=0.5 daily="RU" 
New "Load.BT_1609690_M1" bus1="UC1609690.1.4" phases=1 conn=Wye model=2 kv=0.220000000 kw = 0.2528595 pf=0.92 status=variable vmaxpu=1.5 vminpu=0.5 daily="RU"  
New "Load.BT_1609690_M2" bus1="UC1609690.1.4" phases=1 conn=Wye model=3 kv=0.220000000 kw = 0.2528595 pf=0.92 status=variable vmaxpu=1.5 vminpu=0.5 daily="RU" 
New "Load.BT_627344_M1" bus1="UC627344.1.4" phases=1 conn=Wye model=2 kv=0.220000000 kw = 0.1302085 pf=0.92 status=variable vmaxpu=1.5 vminpu=0.5 daily="RU"  
New "Load.BT_627344_M2" bus1="UC627344.1.4" phases=1 conn=Wye model=3 kv=0.220000000 kw = 0.1302085 pf=0.92 status=variable vmaxpu=1.5 vminpu=0.5 daily="RU" 
New "Load.BT_605867_M1" bus1="UC605867.3.4" phases=1 conn=Wye model=2 kv=0.219393102 kw = 0.3232525 pf=0.92 status=variable vmaxpu=1.5 vminpu=0.5 daily="RU"  
New "Load.BT_605867_M2" bus1="UC605867.3.4" phases=1 conn=Wye model=3 kv=0.219393102 kw = 0.3232525 pf=0.92 status=variable vmaxpu=1.5 vminpu=0.5 daily="RU" 
New "Load.BT_606123_M1" bus1="UC606123.1.2.4" phases=1 conn=Delta model=2 kv=0.380000000 kw = 0.0 pf=0.92 status=variable vmaxpu=1.5 vminpu=0.5 daily="RU"  
New "Load.BT_606123_M2" bus1="UC606123.1.2.4" phases=1 conn=Delta model=3 kv=0.380000000 kw = 0.0 pf=0.92 status=variable vmaxpu=1.5 vminpu=0.5 daily="RU" 
New "Load.BT_605810_M1" bus1="UC605810.1.2.4" phases=1 conn=Delta model=2 kv=0.440000000 kw = 0.49572 pf=0.92 status=variable vmaxpu=1.5 vminpu=0.5 daily="RU"  
New "Load.BT_605810_M2" bus1="UC605810.1.2.4" phases=1 conn=Delta model=3 kv=0.440000000 kw = 0.49572 pf=0.92 status=variable vmaxpu=1.5 vminpu=0.5 daily="RU" 
New "Load.BT_1124041_M1" bus1="UC1124041.2.4" phases=1 conn=Wye model=2 kv=0.220000000 kw = 0.3740315 pf=0.92 status=variable vmaxpu=1.5 vminpu=0.5 daily="RU"  
New "Load.BT_1124041_M2" bus1="UC1124041.2.4" phases=1 conn=Wye model=3 kv=0.220000000 kw = 0.3740315 pf=0.92 status=variable vmaxpu=1.5 vminpu=0.5 daily="RU" 
New "Load.BT_607387_M1" bus1="UC607387.1.4" phases=1 conn=Wye model=2 kv=0.219393102 kw = 0.170961 pf=0.92 status=variable vmaxpu=1.5 vminpu=0.5 daily="RU"  
New "Load.BT_607387_M2" bus1="UC607387.1.4" phases=1 conn=Wye model=3 kv=0.219393102 kw = 0.170961 pf=0.92 status=variable vmaxpu=1.5 vminpu=0.5 daily="RU" 
New "Load.BT_1607355_M1" bus1="UC1607355.2.4" phases=1 conn=Wye model=2 kv=0.219393102 kw = 0.353318 pf=0.92 status=variable vmaxpu=1.5 vminpu=0.5 daily="RU"  
New "Load.BT_1607355_M2" bus1="UC1607355.2.4" phases=1 conn=Wye model=3 kv=0.219393102 kw = 0.353318 pf=0.92 status=variable vmaxpu=1.5 vminpu=0.5 daily="RU" 
New "Load.BT_3405847_M1" bus1="UC3405847.2.4" phases=1 conn=Wye model=2 kv=0.220000000 kw = 0.2615035 pf=0.92 status=variable vmaxpu=1.5 vminpu=0.5 daily="RU"  
New "Load.BT_3405847_M2" bus1="UC3405847.2.4" phases=1 conn=Wye model=3 kv=0.220000000 kw = 0.2615035 pf=0.92 status=variable vmaxpu=1.5 vminpu=0.5 daily="RU" 
New "Load.BT_621168_M1" bus1="UC621168.1.2.4" phases=1 conn=Delta model=2 kv=0.440000000 kw = 0.6480705 pf=0.92 status=variable vmaxpu=1.5 vminpu=0.5 daily="RU"  
New "Load.BT_621168_M2" bus1="UC621168.1.2.4" phases=1 conn=Delta model=3 kv=0.440000000 kw = 0.6480705 pf=0.92 status=variable vmaxpu=1.5 vminpu=0.5 daily="RU" 
New "Load.BT_1607268_M1" bus1="UC1607268.1.2.4" phases=1 conn=Delta model=2 kv=0.440000000 kw = 0.3965815 pf=0.92 status=variable vmaxpu=1.5 vminpu=0.5 daily="RU"  
New "Load.BT_1607268_M2" bus1="UC1607268.1.2.4" phases=1 conn=Delta model=3 kv=0.440000000 kw = 0.3965815 pf=0.92 status=variable vmaxpu=1.5 vminpu=0.5 daily="RU" 
New "Load.BT_1607252_M1" bus1="UC1607252.1.2.4" phases=1 conn=Delta model=2 kv=0.440000000 kw = 1.015249 pf=0.92 status=variable vmaxpu=1.5 vminpu=0.5 daily="RU"  
New "Load.BT_1607252_M2" bus1="UC1607252.1.2.4" phases=1 conn=Delta model=3 kv=0.440000000 kw = 1.015249 pf=0.92 status=variable vmaxpu=1.5 vminpu=0.5 daily="RU" 
New "Load.BT_633672_M1" bus1="UC633672.1.4" phases=1 conn=Wye model=2 kv=0.220000000 kw = 0.005619 pf=0.92 status=variable vmaxpu=1.5 vminpu=0.5 daily="RU"  
New "Load.BT_633672_M2" bus1="UC633672.1.4" phases=1 conn=Wye model=3 kv=0.220000000 kw = 0.005619 pf=0.92 status=variable vmaxpu=1.5 vminpu=0.5 daily="RU" 
New "Load.BT_605808_M1" bus1="UC605808.1.4" phases=1 conn=Wye model=2 kv=0.220000000 kw = 0.159977 pf=0.92 status=variable vmaxpu=1.5 vminpu=0.5 daily="RU"  
New "Load.BT_605808_M2" bus1="UC605808.1.4" phases=1 conn=Wye model=3 kv=0.220000000 kw = 0.159977 pf=0.92 status=variable vmaxpu=1.5 vminpu=0.5 daily="RU" 
New "Load.BT_622713_M1" bus1="UC622713.1.4" phases=1 conn=Wye model=2 kv=0.219393102 kw = 0.313405 pf=0.92 status=variable vmaxpu=1.5 vminpu=0.5 daily="RU"  
New "Load.BT_622713_M2" bus1="UC622713.1.4" phases=1 conn=Wye model=3 kv=0.219393102 kw = 0.313405 pf=0.92 status=variable vmaxpu=1.5 vminpu=0.5 daily="RU" 
New "Load.BT_1239552_M1" bus1="UC1239552.1.2.3.4" phases=3 conn=Delta model=2 kv=0.380000000 kw = 0.0 pf=0.92 status=variable vmaxpu=1.5 vminpu=0.5 daily="RU"  
New "Load.BT_1239552_M2" bus1="UC1239552.1.2.3.4" phases=3 conn=Delta model=3 kv=0.380000000 kw = 0.0 pf=0.92 status=variable vmaxpu=1.5 vminpu=0.5 daily="RU" 
New "Load.BT_609683_M1" bus1="UC609683.2.4" phases=1 conn=Wye model=2 kv=0.220000000 kw = 0.052445 pf=0.92 status=variable vmaxpu=1.5 vminpu=0.5 daily="RU"  
New "Load.BT_609683_M2" bus1="UC609683.2.4" phases=1 conn=Wye model=3 kv=0.220000000 kw = 0.052445 pf=0.92 status=variable vmaxpu=1.5 vminpu=0.5 daily="RU" 
New "Load.BT_625624_M1" bus1="UC625624.1.4" phases=1 conn=Wye model=2 kv=0.219393102 kw = 0.0 pf=0.92 status=variable vmaxpu=1.5 vminpu=0.5 daily="RU"  
New "Load.BT_625624_M2" bus1="UC625624.1.4" phases=1 conn=Wye model=3 kv=0.219393102 kw = 0.0 pf=0.92 status=variable vmaxpu=1.5 vminpu=0.5 daily="RU" 
New "Load.BT_605825_M1" bus1="UC605825.1.4" phases=1 conn=Wye model=2 kv=0.220000000 kw = 0.471874 pf=0.92 status=variable vmaxpu=1.5 vminpu=0.5 daily="RU"  
New "Load.BT_605825_M2" bus1="UC605825.1.4" phases=1 conn=Wye model=3 kv=0.220000000 kw = 0.471874 pf=0.92 status=variable vmaxpu=1.5 vminpu=0.5 daily="RU" 
New "Load.BT_3425629_M1" bus1="UC3425629.1.4" phases=1 conn=Wye model=2 kv=0.220000000 kw = 0.0 pf=0.92 status=variable vmaxpu=1.5 vminpu=0.5 daily="RU"  
New "Load.BT_3425629_M2" bus1="UC3425629.1.4" phases=1 conn=Wye model=3 kv=0.220000000 kw = 0.0 pf=0.92 status=variable vmaxpu=1.5 vminpu=0.5 daily="RU" 
New "Load.BT_1134165_M1" bus1="UC1134165.1.4" phases=1 conn=Wye model=2 kv=0.220000000 kw = 0.206066 pf=0.92 status=variable vmaxpu=1.5 vminpu=0.5 daily="RU"  
New "Load.BT_1134165_M2" bus1="UC1134165.1.4" phases=1 conn=Wye model=3 kv=0.220000000 kw = 0.206066 pf=0.92 status=variable vmaxpu=1.5 vminpu=0.5 daily="RU" 
New "Load.BT_621999_M1" bus1="UC621999.1.4" phases=1 conn=Wye model=2 kv=0.220000000 kw = 0.4604735 pf=0.92 status=variable vmaxpu=1.5 vminpu=0.5 daily="RU"  
New "Load.BT_621999_M2" bus1="UC621999.1.4" phases=1 conn=Wye model=3 kv=0.220000000 kw = 0.4604735 pf=0.92 status=variable vmaxpu=1.5 vminpu=0.5 daily="RU" 
New "Load.BT_1124340_M1" bus1="UC1124340.1.2.3.4" phases=3 conn=Delta model=2 kv=0.380000000 kw = 0.204655 pf=0.92 status=variable vmaxpu=1.5 vminpu=0.5 daily="RU"  
New "Load.BT_1124340_M2" bus1="UC1124340.1.2.3.4" phases=3 conn=Delta model=3 kv=0.380000000 kw = 0.204655 pf=0.92 status=variable vmaxpu=1.5 vminpu=0.5 daily="RU" 
New "Load.BT_637399_M1" bus1="UC637399.1.4" phases=1 conn=Wye model=2 kv=0.219393102 kw = 0.152864 pf=0.92 status=variable vmaxpu=1.5 vminpu=0.5 daily="RU"  
New "Load.BT_637399_M2" bus1="UC637399.1.4" phases=1 conn=Wye model=3 kv=0.219393102 kw = 0.152864 pf=0.92 status=variable vmaxpu=1.5 vminpu=0.5 daily="RU" 
New "Load.BT_605820_M1" bus1="UC605820.1.2.4" phases=1 conn=Delta model=2 kv=0.440000000 kw = 0.444171 pf=0.92 status=variable vmaxpu=1.5 vminpu=0.5 daily="RU"  
New "Load.BT_605820_M2" bus1="UC605820.1.2.4" phases=1 conn=Delta model=3 kv=0.440000000 kw = 0.444171 pf=0.92 status=variable vmaxpu=1.5 vminpu=0.5 daily="RU" 
New "Load.BT_1607277_M1" bus1="UC1607277.1.4" phases=1 conn=Wye model=2 kv=0.220000000 kw = 0.0 pf=0.92 status=variable vmaxpu=1.5 vminpu=0.5 daily="RU"  
New "Load.BT_1607277_M2" bus1="UC1607277.1.4" phases=1 conn=Wye model=3 kv=0.220000000 kw = 0.0 pf=0.92 status=variable vmaxpu=1.5 vminpu=0.5 daily="RU" 
New "Load.BT_626699_M1" bus1="UC626699.1.4" phases=1 conn=Wye model=2 kv=0.220000000 kw = 0.04771 pf=0.92 status=variable vmaxpu=1.5 vminpu=0.5 daily="RU"  
New "Load.BT_626699_M2" bus1="UC626699.1.4" phases=1 conn=Wye model=3 kv=0.220000000 kw = 0.04771 pf=0.92 status=variable vmaxpu=1.5 vminpu=0.5 daily="RU" 
New "Load.BT_1607304_M1" bus1="UC1607304.1.2.3.4" phases=3 conn=Delta model=2 kv=0.380000000 kw = 1.043281 pf=0.92 status=variable vmaxpu=1.5 vminpu=0.5 daily="RU"  
New "Load.BT_1607304_M2" bus1="UC1607304.1.2.3.4" phases=3 conn=Delta model=3 kv=0.380000000 kw = 1.043281 pf=0.92 status=variable vmaxpu=1.5 vminpu=0.5 daily="RU" 
New "Load.BT_605982_M1" bus1="UC605982.2.4" phases=1 conn=Wye model=2 kv=0.219393102 kw = 0.269996 pf=0.92 status=variable vmaxpu=1.5 vminpu=0.5 daily="RU"  
New "Load.BT_605982_M2" bus1="UC605982.2.4" phases=1 conn=Wye model=3 kv=0.219393102 kw = 0.269996 pf=0.92 status=variable vmaxpu=1.5 vminpu=0.5 daily="RU" 
New "Load.BT_605901_M1" bus1="UC605901.1.4" phases=1 conn=Wye model=2 kv=0.220000000 kw = 0.2614115 pf=0.92 status=variable vmaxpu=1.5 vminpu=0.5 daily="RU"  
New "Load.BT_605901_M2" bus1="UC605901.1.4" phases=1 conn=Wye model=3 kv=0.220000000 kw = 0.2614115 pf=0.92 status=variable vmaxpu=1.5 vminpu=0.5 daily="RU" 
New "Load.BT_1607302_M1" bus1="UC1607302.1.2.3.4" phases=3 conn=Delta model=2 kv=0.380000000 kw = 0.37648 pf=0.92 status=variable vmaxpu=1.5 vminpu=0.5 daily="RU"  
New "Load.BT_1607302_M2" bus1="UC1607302.1.2.3.4" phases=3 conn=Delta model=3 kv=0.380000000 kw = 0.37648 pf=0.92 status=variable vmaxpu=1.5 vminpu=0.5 daily="RU" 
New "Load.BT_606141_M1" bus1="UC606141.1.4" phases=1 conn=Wye model=2 kv=0.220000000 kw = 0.276886 pf=0.92 status=variable vmaxpu=1.5 vminpu=0.5 daily="RU"  
New "Load.BT_606141_M2" bus1="UC606141.1.4" phases=1 conn=Wye model=3 kv=0.220000000 kw = 0.276886 pf=0.92 status=variable vmaxpu=1.5 vminpu=0.5 daily="RU" 
New "Load.BT_606110_M1" bus1="UC606110.1.2.3.4" phases=3 conn=Delta model=2 kv=0.380000000 kw = 0.382675 pf=0.92 status=variable vmaxpu=1.5 vminpu=0.5 daily="RU"  
New "Load.BT_606110_M2" bus1="UC606110.1.2.3.4" phases=3 conn=Delta model=3 kv=0.380000000 kw = 0.382675 pf=0.92 status=variable vmaxpu=1.5 vminpu=0.5 daily="RU" 
New "Load.BT_623427_M1" bus1="UC623427.1.4" phases=1 conn=Wye model=2 kv=0.219393102 kw = 0.0 pf=0.92 status=variable vmaxpu=1.5 vminpu=0.5 daily="RU"  
New "Load.BT_623427_M2" bus1="UC623427.1.4" phases=1 conn=Wye model=3 kv=0.219393102 kw = 0.0 pf=0.92 status=variable vmaxpu=1.5 vminpu=0.5 daily="RU" 
New "Load.BT_607384_M1" bus1="UC607384.1.2.3.4" phases=3 conn=Delta model=2 kv=0.380000000 kw = 0.9108465 pf=0.92 status=variable vmaxpu=1.5 vminpu=0.5 daily="RU"  
New "Load.BT_607384_M2" bus1="UC607384.1.2.3.4" phases=3 conn=Delta model=3 kv=0.380000000 kw = 0.9108465 pf=0.92 status=variable vmaxpu=1.5 vminpu=0.5 daily="RU" 
New "Load.BT_623015_M1" bus1="UC623015.1.4" phases=1 conn=Wye model=2 kv=0.219393102 kw = 0.275089 pf=0.92 status=variable vmaxpu=1.5 vminpu=0.5 daily="RE"  
New "Load.BT_623015_M2" bus1="UC623015.1.4" phases=1 conn=Wye model=3 kv=0.219393102 kw = 0.275089 pf=0.92 status=variable vmaxpu=1.5 vminpu=0.5 daily="RE" 
New "Load.BT_609688_M1" bus1="UC609688.1.2.4" phases=1 conn=Delta model=2 kv=0.440000000 kw = 0.5671145 pf=0.92 status=variable vmaxpu=1.5 vminpu=0.5 daily="RU"  
New "Load.BT_609688_M2" bus1="UC609688.1.2.4" phases=1 conn=Delta model=3 kv=0.440000000 kw = 0.5671145 pf=0.92 status=variable vmaxpu=1.5 vminpu=0.5 daily="RU" 
New "Load.BT_3435739_M1" bus1="UC3435739.1.2.4" phases=1 conn=Delta model=2 kv=0.440000000 kw = 1.8107095 pf=0.92 status=variable vmaxpu=1.5 vminpu=0.5 daily="RU"  
New "Load.BT_3435739_M2" bus1="UC3435739.1.2.4" phases=1 conn=Delta model=3 kv=0.440000000 kw = 1.8107095 pf=0.92 status=variable vmaxpu=1.5 vminpu=0.5 daily="RU" 
...